#############################################################
#             ______       _    _          _   	            #
#            (_____ \     \ \  / /        | |               #
#             _____) )   _ \ \/ / |_  ____| |  	            #
#            |  ____/ | | | )  (|  _)/ _  | | 	            #
#            | |    | |_| |/ /\ \ |_( (_| | |___            #
#            |_|     \__  /_/  \_\___)__|_|_____)           #
#                   (____/                                  #
#---------------------(version    0.2.2)--------------------#
#       A Python package for random crystal generation      #
#       url: https://github.com/qzhu2017/pyxtal             #
#       @Zhu's group at University of Nevada Las Vegas      #
#############################################################
data_from_pyxtal

_symmetry_space_group_name_H-M 'P42/mcm'
_symmetry_Int_Tables_number                  132
_symmetry_cell_setting                tetragonal
_cell_length_a            5.510477
_cell_length_b            5.510477
_cell_length_c            5.717080
_cell_angle_alpha        90.000000
_cell_angle_beta         90.000000
_cell_angle_gamma        90.000000

loop_
 _symmetry_equiv_pos_site_id
 _symmetry_equiv_pos_as_xyz
1 'x, y, z'
2 '-x, -y, z'
3 '-y, x, z+1/2'
4 'y, -x, z+1/2'
5 '-x, y, -z+1/2'
6 'x, -y, -z+1/2'
7 'y, x, -z'
8 '-y, -x, -z'
9 '-x, -y, -z'
10 'x, y, -z'
11 'y, -x, -z+1/2'
12 '-y, x, -z+1/2'
13 'x, -y, z+1/2'
14 '-x, y, z+1/2'
15 '-y, -x, z'
16 'y, x, z'

loop_
 _atom_site_label
 _atom_site_type_symbol
 _atom_site_symmetry_multiplicity
 _atom_site_fract_x
 _atom_site_fract_y
 _atom_site_fract_z
 _atom_site_occupancy
Bi     Bi       4     0.117211    0.117211    0.000000 1
O      O        4     0.000000    0.500000    0.250000 1
O      O        2     0.000000    0.000000    0.250000 1
#END

