#############################################################
#             ______       _    _          _   	            #
#            (_____ \     \ \  / /        | |               #
#             _____) )   _ \ \/ / |_  ____| |  	            #
#            |  ____/ | | | )  (|  _)/ _  | | 	            #
#            | |    | |_| |/ /\ \ |_( (_| | |___            #
#            |_|     \__  /_/  \_\___)__|_|_____)           #
#                   (____/                                  #
#---------------------(version    0.2.2)--------------------#
#       A Python package for random crystal generation      #
#       url: https://github.com/qzhu2017/pyxtal             #
#       @Zhu's group at University of Nevada Las Vegas      #
#############################################################
data_from_pyxtal

_symmetry_space_group_name_H-M 'P42/n'
_symmetry_Int_Tables_number                   86
_symmetry_cell_setting                tetragonal
_cell_length_a            7.025003
_cell_length_b            7.025003
_cell_length_c            8.221958
_cell_angle_alpha        90.000000
_cell_angle_beta         90.000000
_cell_angle_gamma        90.000000

loop_
 _symmetry_equiv_pos_site_id
 _symmetry_equiv_pos_as_xyz
1 'x, y, z'
2 '-x+1/2, -y+1/2, z'
3 '-y, x+1/2, z+1/2'
4 'y+1/2, -x, z+1/2'
5 '-x, -y, -z'
6 'x+1/2, y+1/2, -z'
7 'y, -x+1/2, -z+1/2'
8 '-y+1/2, x, -z+1/2'

loop_
 _atom_site_label
 _atom_site_type_symbol
 _atom_site_symmetry_multiplicity
 _atom_site_fract_x
 _atom_site_fract_y
 _atom_site_fract_z
 _atom_site_occupancy
As     As       8     0.940751    0.596856    0.821427 1
O      O        8     0.684547    0.471347    0.182017 1
O      O        4     0.000000    0.000000    0.000000 1
#END

