#############################################################
#             ______       _    _          _   	            #
#            (_____ \     \ \  / /        | |               #
#             _____) )   _ \ \/ / |_  ____| |  	            #
#            |  ____/ | | | )  (|  _)/ _  | | 	            #
#            | |    | |_| |/ /\ \ |_( (_| | |___            #
#            |_|     \__  /_/  \_\___)__|_|_____)           #
#                   (____/                                  #
#---------------------(version    0.2.2)--------------------#
#       A Python package for random crystal generation      #
#       url: https://github.com/qzhu2017/pyxtal             #
#       @Zhu's group at University of Nevada Las Vegas      #
#############################################################
data_from_pyxtal

_symmetry_space_group_name_H-M 'P21/m'
_symmetry_Int_Tables_number                   11
_symmetry_cell_setting                monoclinic
_cell_length_a            4.409537
_cell_length_b            5.329352
_cell_length_c            6.185940
_cell_angle_alpha        90.000000
_cell_angle_beta        105.325681
_cell_angle_gamma        90.000000

loop_
 _symmetry_equiv_pos_site_id
 _symmetry_equiv_pos_as_xyz
1 'x, y, z'
2 '-x, y+1/2, -z'
3 '-x, -y, -z'
4 'x, -y+1/2, z'

loop_
 _atom_site_label
 _atom_site_type_symbol
 _atom_site_symmetry_multiplicity
 _atom_site_fract_x
 _atom_site_fract_y
 _atom_site_fract_z
 _atom_site_occupancy
Ce     Ce       2     0.000000    0.000000    0.500000 1
As     As       2     0.000000    0.000000    0.000000 1
O      O        4     0.097314    0.470909    0.731406 1
O      O        2     0.500000    0.000000    0.500000 1
#END

