#############################################################
#             ______       _    _          _   	            #
#            (_____ \     \ \  / /        | |               #
#             _____) )   _ \ \/ / |_  ____| |  	            #
#            |  ____/ | | | )  (|  _)/ _  | | 	            #
#            | |    | |_| |/ /\ \ |_( (_| | |___            #
#            |_|     \__  /_/  \_\___)__|_|_____)           #
#                   (____/                                  #
#---------------------(version    0.2.2)--------------------#
#       A Python package for random crystal generation      #
#       url: https://github.com/qzhu2017/pyxtal             #
#       @Zhu's group at University of Nevada Las Vegas      #
#############################################################
data_from_pyxtal

_symmetry_space_group_name_H-M 'Pna21'
_symmetry_Int_Tables_number                   33
_symmetry_cell_setting              orthorhombic
_cell_length_a            4.980852
_cell_length_b            6.328571
_cell_length_c            5.222615
_cell_angle_alpha        90.000000
_cell_angle_beta         90.000000
_cell_angle_gamma        90.000000

loop_
 _symmetry_equiv_pos_site_id
 _symmetry_equiv_pos_as_xyz
1 'x, y, z'
2 '-x, -y, z+1/2'
3 'x+1/2, -y+1/2, z'
4 '-x+1/2, y+1/2, z+1/2'

loop_
 _atom_site_label
 _atom_site_type_symbol
 _atom_site_symmetry_multiplicity
 _atom_site_fract_x
 _atom_site_fract_y
 _atom_site_fract_z
 _atom_site_occupancy
V      V        4     0.430629    0.753185    0.492835 1
Si     Si       4     0.669094    0.643372    0.444780 1
N      N        4     0.616598    0.462935    0.188972 1
N      N        4     0.837521    0.318059    0.720110 1
#END

